<?xml version="1.0" encoding="UTF-8"?>

<net version="1.16" junctionCornerDetail="5" limitTurnSpeed="5.50" xmlns:xsi="http://www.w3.org/2001/XMLSchema-instance" xsi:noNamespaceSchemaLocation="http://sumo.dlr.de/xsd/net_file.xsd">

    <location netOffset="0.00,0.00" convBoundary="-1083.84,120.41,1100.00,200.01" origBoundary="-10000000000.00,-10000000000.00,10000000000.00,10000000000.00" projParameter="!"/>

    <edge id="E0" from="J0" to="JH1" priority="-1">
    <!-- truck speed limit 80km/h -->
        <restriction vClass="truck" speed="22.22"/>
        <lane id="E0_0" index="0" speed="36.11" length="557.55" shape="-1083.84,195.21 -526.29,195.20"/>
        <lane id="E0_1" index="1" speed="36.11" length="557.55" shape="-1083.84,198.41 -526.29,198.40"/>
    </edge>
    <edge id="E1" from="J1" to="JR1" priority="-1">
        <lane id="E1_0" index="0" speed="19.44" length="308.88" shape="-274.39,118.91 34.49,118.81"/>
    </edge>
    <edge id="HW_Ramp" from="JH2" to="JH3" priority="-1" length="250.00" shape="400.00,200.00 541.39,200.00 600.00,200.00">
    <!-- truck speed limit 80km/h -->
        <restriction vClass="truck" speed="22.22"/>
        <lane id="HW_Ramp_0" index="0" speed="36.11" length="250.00" shape="372.33,192.00 541.39,192.00 596.00,192.00"/>
        <lane id="HW_Ramp_1" index="1" speed="36.11" length="250.00" shape="372.33,195.20 541.39,195.20 596.00,195.20"/>
        <lane id="HW_Ramp_2" index="2" speed="36.11" length="250.00" shape="372.33,198.40 541.39,198.40 596.00,198.40"/>
    </edge>
    <edge id="HW_afterRamp" from="JH3" to="JH4" priority="-1">
    <!-- truck speed limit 80km/h -->
        <restriction vClass="truck" speed="22.22"/>
        <lane id="HW_afterRamp_0" index="0" speed="36.11" length="500.00" shape="604.00,195.20 1100.00,195.20"/>
        <lane id="HW_afterRamp_1" index="1" speed="36.11" length="500.00" shape="604.00,198.40 1100.00,198.40"/>
    </edge>
    <edge id="HW_beforeRamp" from="JH1" to="JH2" priority="-1" length="500.00" shape="-526.29,200.00 -541.05,200.00 -465.35,200.00 -133.38,200.00 400.00,200.00">
    <!-- truck speed limit 80km/h -->
        <restriction vClass="truck" speed="22.22"/>
        <lane id="HW_beforeRamp_0" index="0" speed="36.11" length="500.00" shape="-526.29,195.20 -465.35,195.20 -133.38,195.20 368.99,195.20"/>
        <lane id="HW_beforeRamp_1" index="1" speed="36.11" length="500.00" shape="-526.29,198.40 -465.35,198.40 -133.38,198.40 368.99,198.40"/>
    </edge>
    <edge id="Ramp_afterTL" from="JRTL" to="JH2" priority="-1" type="Ramp" length="35.00" shape="348.81,188.90 400.00,200.00">
        <lane id="Ramp_afterTL_0" index="0" speed="19.44" length="35.00" shape="349.15,187.34 369.02,191.65"/>
    </edge>
    <edge id="Ramp_beforeTL" from="JR1" to="JRTL" priority="-1" type="Ramp" length="250.00">
        <lane id="Ramp_beforeTL_0" index="0" speed="19.44" length="250.00" shape="34.83,118.85 349.05,187.24"/>
    </edge>

    <tlLogic id="JRTL1" type="static" programID="0" offset="0">
        <phase duration="60" state="G"/>
        <phase duration="60" state="r"/>
    </tlLogic>

    <junction id="J0" type="dead_end" x="-1083.84" y="200.01" incLanes="" intLanes="" shape="-1083.84,200.01 -1083.84,193.61"/>
    <junction id="J1" type="dead_end" x="-274.39" y="120.51" incLanes="" intLanes="" shape="-274.39,120.51 -274.39,117.31"/>
    <junction id="JH1" type="priority" x="-526.29" y="200.00" incLanes="E0_0 E0_1" intLanes="" shape="-526.29,200.00 -526.29,193.60 -526.29,200.00">
        <request index="0" response="00" foes="00"/>
        <request index="1" response="00" foes="00"/>
    </junction>
    <junction id="JH2" type="priority" x="400.00" y="200.00" incLanes="Ramp_afterTL_0 HW_beforeRamp_0 HW_beforeRamp_1" intLanes="" shape="372.33,200.00 372.33,190.40 371.22,190.39 370.83,190.36 370.45,190.31 369.98,190.22 369.36,190.08 368.68,193.21 368.99,193.60 368.99,200.00">
        <request index="0" response="000" foes="000"/>
        <request index="1" response="000" foes="000"/>
        <request index="2" response="000" foes="000"/>
    </junction>
    <junction id="JH3" type="priority" x="600.00" y="200.00" incLanes="HW_Ramp_0 HW_Ramp_1 HW_Ramp_2" intLanes="" shape="604.00,200.00 604.00,193.60 600.97,192.77 599.03,191.23 597.79,190.64 596.00,190.40 596.00,200.00">
        <request index="0" response="00" foes="00"/>
        <request index="1" response="00" foes="00"/>
    </junction>
    <junction id="JH4" type="dead_end" x="1100.00" y="200.00" incLanes="HW_afterRamp_0 HW_afterRamp_1" intLanes="" shape="1100.00,193.60 1100.00,200.00"/>
    <junction id="JR1" type="priority" x="34.49" y="120.41" incLanes="E1_0" intLanes="" shape="34.49,120.41 35.17,117.28 34.92,117.23 34.83,117.22 34.74,117.21 34.64,117.21 34.49,117.21">
        <request index="0" response="0" foes="0"/>
    </junction>
    <junction id="JRTL" type="traffic_light" x="348.71" y="188.80" incLanes="Ramp_beforeTL_0" intLanes="" shape="348.90,188.92 349.58,185.79 349.47,185.75 349.41,185.70 349.36,185.67 348.62,188.78 348.73,188.82 348.79,188.88 348.84,188.90">
        <request index="0" response="0" foes="0"/>
    </junction>

    <connection from="E0" to="HW_beforeRamp" fromLane="0" toLane="0" dir="t" state="M"/>
    <connection from="E0" to="HW_beforeRamp" fromLane="1" toLane="1" dir="t" state="M"/>
    <connection from="E1" to="Ramp_beforeTL" fromLane="0" toLane="0" dir="s" state="M"/>
    <connection from="HW_Ramp" to="HW_afterRamp" fromLane="1" toLane="0" dir="s" state="M"/>
    <connection from="HW_Ramp" to="HW_afterRamp" fromLane="2" toLane="1" dir="s" state="M"/>
    <connection from="HW_beforeRamp" to="HW_Ramp" fromLane="0" toLane="1" dir="s" state="M"/>
    <connection from="HW_beforeRamp" to="HW_Ramp" fromLane="1" toLane="2" dir="s" state="M"/>
    <connection from="Ramp_afterTL" to="HW_Ramp" fromLane="0" toLane="0" dir="s" state="M"/>
    <connection from="Ramp_beforeTL" to="Ramp_afterTL" fromLane="0" toLane="0" tl="JRTL1" linkIndex="0" dir="s" state="O"/>

</net>
